* ngspice behavioral subcircuit (B-sources)
* Generated from model: PsiNN_laplace
.subckt psi_nn_psinn_laplace in0 in1 out0 vdd vss

* Activation (fallback-friendly): use tanh() if supported by ngspice, else replace with rational approx
.func tanh_psi(x) { tanh(x) }

B_u13_0 u13_0 0 V = tanh_psi(-5.665620565414e-01 + -8.157656192780e-01*V(in0) + 3.668748140335e-01*V(in1))
B_u14_0 u14_0 0 V = tanh_psi(-5.665620565414e-01 + -8.157656192780e-01*V(in0) + (-1)*(3.668748140335e-01*V(in1)))
B_u13_1 u13_1 0 V = tanh_psi(5.053761005402e-01 + -8.688112497330e-01*V(in0) + -6.140457391739e-01*V(in1))
B_u14_1 u14_1 0 V = tanh_psi(5.053761005402e-01 + -8.688112497330e-01*V(in0) + (-1)*(-6.140457391739e-01*V(in1)))
B_u13_2 u13_2 0 V = tanh_psi(-3.724560737610e-01 + 2.057421207428e-02*V(in0) + -4.692682027817e-01*V(in1))
B_u14_2 u14_2 0 V = tanh_psi(-3.724560737610e-01 + 2.057421207428e-02*V(in0) + (-1)*(-4.692682027817e-01*V(in1)))
B_u13_3 u13_3 0 V = tanh_psi(7.214748859406e-01 + 1.038964986801e-01*V(in0) + 4.739869832993e-01*V(in1))
B_u14_3 u14_3 0 V = tanh_psi(7.214748859406e-01 + 1.038964986801e-01*V(in0) + (-1)*(4.739869832993e-01*V(in1)))
B_u13_4 u13_4 0 V = tanh_psi(6.953829526901e-01 + -3.372356891632e-01*V(in0) + 2.286871671677e-01*V(in1))
B_u14_4 u14_4 0 V = tanh_psi(6.953829526901e-01 + -3.372356891632e-01*V(in0) + (-1)*(2.286871671677e-01*V(in1)))
B_u13_5 u13_5 0 V = tanh_psi(1.714925765991e-01 + -1.404547691345e-01*V(in0) + -9.102548360825e-01*V(in1))
B_u14_5 u14_5 0 V = tanh_psi(1.714925765991e-01 + -1.404547691345e-01*V(in0) + (-1)*(-9.102548360825e-01*V(in1)))
B_u13_6 u13_6 0 V = tanh_psi(-1.126444339752e-01 + -7.897905111313e-01*V(in0) + 5.154902935028e-01*V(in1))
B_u14_6 u14_6 0 V = tanh_psi(-1.126444339752e-01 + -7.897905111313e-01*V(in0) + (-1)*(5.154902935028e-01*V(in1)))
B_u13_7 u13_7 0 V = tanh_psi(6.030070781708e-01 + 6.916701793671e-01*V(in0) + -2.668412923813e-01*V(in1))
B_u14_7 u14_7 0 V = tanh_psi(6.030070781708e-01 + 6.916701793671e-01*V(in0) + (-1)*(-2.668412923813e-01*V(in1)))
B_u13_8 u13_8 0 V = tanh_psi(4.298877716064e-01 + -9.640698432922e-01*V(in0) + -7.888885736465e-01*V(in1))
B_u14_8 u14_8 0 V = tanh_psi(4.298877716064e-01 + -9.640698432922e-01*V(in0) + (-1)*(-7.888885736465e-01*V(in1)))
B_u13_9 u13_9 0 V = tanh_psi(3.285226821899e-01 + 6.515524387360e-01*V(in0) + -6.140619516373e-01*V(in1))
B_u14_9 u14_9 0 V = tanh_psi(3.285226821899e-01 + 6.515524387360e-01*V(in0) + (-1)*(-6.140619516373e-01*V(in1)))
B_u13_10 u13_10 0 V = tanh_psi(2.992457151413e-01 + 3.717818260193e-01*V(in0) + -3.624230623245e-01*V(in1))
B_u14_10 u14_10 0 V = tanh_psi(2.992457151413e-01 + 3.717818260193e-01*V(in0) + (-1)*(-3.624230623245e-01*V(in1)))
B_u13_11 u13_11 0 V = tanh_psi(-3.891658782959e-01 + 9.932315349579e-02*V(in0) + -6.571027040482e-01*V(in1))
B_u14_11 u14_11 0 V = tanh_psi(-3.891658782959e-01 + 9.932315349579e-02*V(in0) + (-1)*(-6.571027040482e-01*V(in1)))
B_u13_12 u13_12 0 V = tanh_psi(2.766536474228e-01 + -8.720550537109e-01*V(in0) + 5.552325248718e-01*V(in1))
B_u14_12 u14_12 0 V = tanh_psi(2.766536474228e-01 + -8.720550537109e-01*V(in0) + (-1)*(5.552325248718e-01*V(in1)))
B_u13_13 u13_13 0 V = tanh_psi(1.132245063782e-01 + -9.015836715698e-01*V(in0) + -9.238231182098e-01*V(in1))
B_u14_13 u14_13 0 V = tanh_psi(1.132245063782e-01 + -9.015836715698e-01*V(in0) + (-1)*(-9.238231182098e-01*V(in1)))
B_u13_14 u13_14 0 V = tanh_psi(3.199168443680e-01 + -6.510341167450e-02*V(in0) + -8.745965957642e-01*V(in1))
B_u14_14 u14_14 0 V = tanh_psi(3.199168443680e-01 + -6.510341167450e-02*V(in0) + (-1)*(-8.745965957642e-01*V(in1)))
B_u13_15 u13_15 0 V = tanh_psi(-3.734831809998e-01 + -1.389628648758e-01*V(in0) + -4.848867654800e-01*V(in1))
B_u14_15 u14_15 0 V = tanh_psi(-3.734831809998e-01 + -1.389628648758e-01*V(in0) + (-1)*(-4.848867654800e-01*V(in1)))
B_u13_16 u13_16 0 V = tanh_psi(-2.129594087601e-01 + 7.876802682877e-01*V(in0) + -3.580049276352e-01*V(in1))
B_u14_16 u14_16 0 V = tanh_psi(-2.129594087601e-01 + 7.876802682877e-01*V(in0) + (-1)*(-3.580049276352e-01*V(in1)))
B_u13_17 u13_17 0 V = tanh_psi(-7.329008579254e-01 + -1.050139665604e-01*V(in0) + 4.497967958450e-01*V(in1))
B_u14_17 u14_17 0 V = tanh_psi(-7.329008579254e-01 + -1.050139665604e-01*V(in0) + (-1)*(4.497967958450e-01*V(in1)))
B_u13_18 u13_18 0 V = tanh_psi(8.302590847015e-01 + -8.090028762817e-01*V(in0) + -3.972684144974e-01*V(in1))
B_u14_18 u14_18 0 V = tanh_psi(8.302590847015e-01 + -8.090028762817e-01*V(in0) + (-1)*(-3.972684144974e-01*V(in1)))
B_u13_19 u13_19 0 V = tanh_psi(-6.654369831085e-02 + 7.754015922546e-02*V(in0) + -7.532757520676e-01*V(in1))
B_u14_19 u14_19 0 V = tanh_psi(-6.654369831085e-02 + 7.754015922546e-02*V(in0) + (-1)*(-7.532757520676e-01*V(in1)))
B_u23_0 u23_0 0 V = tanh_psi(-1.732249557972e-01 + -1.069156453013e-01*V(u13_0) + 2.229977846146e-01*V(u13_1) + 1.418948769569e-01*V(u13_2)
+ + 9.682992100716e-02*V(u13_3) + 1.912443637848e-01*V(u13_4) + 1.865863800049e-02*V(u13_5) + 2.017188370228e-01*V(u13_6)
+ + -1.436887979507e-01*V(u13_7) + -1.049832999706e-02*V(u13_8) + -1.834024786949e-01*V(u13_9) + 6.191787123680e-02*V(u13_10)
+ + 1.316170394421e-01*V(u13_11) + 6.485342979431e-02*V(u13_12) + -9.786041080952e-02*V(u13_13) + 1.209068596363e-01*V(u13_14)
+ + 2.027826905251e-01*V(u13_15) + -8.951556682587e-02*V(u13_16) + -1.152959764004e-01*V(u13_17) + -7.188695669174e-02*V(u13_18)
+ + -1.955969780684e-01*V(u13_19) + -1.876783370972e-01*V(u14_0) + -4.335837066174e-02*V(u14_1) + -6.092458963394e-02*V(u14_2)
+ + 1.070877313614e-01*V(u14_3) + 1.768919825554e-02*V(u14_4) + -2.008354961872e-01*V(u14_5) + 2.666249871254e-02*V(u14_6)
+ + 8.711659908295e-02*V(u14_7) + 1.192215681076e-01*V(u14_8) + 2.082380354404e-01*V(u14_9) + 2.548855543137e-02*V(u14_10)
+ + -8.365347981453e-02*V(u14_11) + -5.356708168983e-02*V(u14_12) + 1.709586381912e-01*V(u14_13) + -4.881048202515e-02*V(u14_14)
+ + -9.091950953007e-02*V(u14_15) + -2.043484151363e-01*V(u14_16) + 2.179453969002e-01*V(u14_17) + -5.373707413673e-02*V(u14_18)
+ + 1.592637598515e-02*V(u14_19))
B_u24_0 u24_0 0 V = tanh_psi(-1.732249557972e-01 + -1.876783370972e-01*V(u13_0) + -4.335837066174e-02*V(u13_1) + -6.092458963394e-02*V(u13_2)
+ + 1.070877313614e-01*V(u13_3) + 1.768919825554e-02*V(u13_4) + -2.008354961872e-01*V(u13_5) + 2.666249871254e-02*V(u13_6)
+ + 8.711659908295e-02*V(u13_7) + 1.192215681076e-01*V(u13_8) + 2.082380354404e-01*V(u13_9) + 2.548855543137e-02*V(u13_10)
+ + -8.365347981453e-02*V(u13_11) + -5.356708168983e-02*V(u13_12) + 1.709586381912e-01*V(u13_13) + -4.881048202515e-02*V(u13_14)
+ + -9.091950953007e-02*V(u13_15) + -2.043484151363e-01*V(u13_16) + 2.179453969002e-01*V(u13_17) + -5.373707413673e-02*V(u13_18)
+ + 1.592637598515e-02*V(u13_19) + -1.069156453013e-01*V(u14_0) + 2.229977846146e-01*V(u14_1) + 1.418948769569e-01*V(u14_2)
+ + 9.682992100716e-02*V(u14_3) + 1.912443637848e-01*V(u14_4) + 1.865863800049e-02*V(u14_5) + 2.017188370228e-01*V(u14_6)
+ + -1.436887979507e-01*V(u14_7) + -1.049832999706e-02*V(u14_8) + -1.834024786949e-01*V(u14_9) + 6.191787123680e-02*V(u14_10)
+ + 1.316170394421e-01*V(u14_11) + 6.485342979431e-02*V(u14_12) + -9.786041080952e-02*V(u14_13) + 1.209068596363e-01*V(u14_14)
+ + 2.027826905251e-01*V(u14_15) + -8.951556682587e-02*V(u14_16) + -1.152959764004e-01*V(u14_17) + -7.188695669174e-02*V(u14_18)
+ + -1.955969780684e-01*V(u14_19))
B_u23_1 u23_1 0 V = tanh_psi(-6.416815519333e-02 + -5.015759170055e-02*V(u13_0) + -2.119085192680e-02*V(u13_1) + -2.170503735542e-01*V(u13_2)
+ + 1.008728742599e-01*V(u13_3) + 4.323273897171e-02*V(u13_4) + 1.245056390762e-01*V(u13_5) + 7.585284113884e-02*V(u13_6)
+ + 5.563017725945e-02*V(u13_7) + 9.638354182243e-02*V(u13_8) + 1.615210771561e-01*V(u13_9) + 5.542293190956e-02*V(u13_10)
+ + -2.150042355061e-01*V(u13_11) + -2.607212960720e-02*V(u13_12) + 5.187997221947e-02*V(u13_13) + -6.970798969269e-02*V(u13_14)
+ + 8.932012319565e-02*V(u13_15) + 1.496900320053e-01*V(u13_16) + -2.412851154804e-02*V(u13_17) + 2.432727813721e-02*V(u13_18)
+ + -2.218086570501e-01*V(u13_19) + -1.006783545017e-01*V(u14_0) + -9.573297202587e-02*V(u14_1) + 1.723870635033e-02*V(u14_2)
+ + 1.068624258041e-01*V(u14_3) + 1.110614836216e-01*V(u14_4) + -3.877614438534e-02*V(u14_5) + -1.133689582348e-01*V(u14_6)
+ + -3.567911684513e-02*V(u14_7) + -1.281697750092e-01*V(u14_8) + -1.890425086021e-01*V(u14_9) + 1.145312488079e-01*V(u14_10)
+ + -7.937769591808e-02*V(u14_11) + 2.196837067604e-01*V(u14_12) + -2.523522078991e-02*V(u14_13) + -2.802094817162e-02*V(u14_14)
+ + 3.956255316734e-02*V(u14_15) + -4.957705736160e-02*V(u14_16) + -2.069058120251e-01*V(u14_17) + -9.555327892303e-02*V(u14_18)
+ + -3.399403393269e-02*V(u14_19))
B_u24_1 u24_1 0 V = tanh_psi(-6.416815519333e-02 + -1.006783545017e-01*V(u13_0) + -9.573297202587e-02*V(u13_1) + 1.723870635033e-02*V(u13_2)
+ + 1.068624258041e-01*V(u13_3) + 1.110614836216e-01*V(u13_4) + -3.877614438534e-02*V(u13_5) + -1.133689582348e-01*V(u13_6)
+ + -3.567911684513e-02*V(u13_7) + -1.281697750092e-01*V(u13_8) + -1.890425086021e-01*V(u13_9) + 1.145312488079e-01*V(u13_10)
+ + -7.937769591808e-02*V(u13_11) + 2.196837067604e-01*V(u13_12) + -2.523522078991e-02*V(u13_13) + -2.802094817162e-02*V(u13_14)
+ + 3.956255316734e-02*V(u13_15) + -4.957705736160e-02*V(u13_16) + -2.069058120251e-01*V(u13_17) + -9.555327892303e-02*V(u13_18)
+ + -3.399403393269e-02*V(u13_19) + -5.015759170055e-02*V(u14_0) + -2.119085192680e-02*V(u14_1) + -2.170503735542e-01*V(u14_2)
+ + 1.008728742599e-01*V(u14_3) + 4.323273897171e-02*V(u14_4) + 1.245056390762e-01*V(u14_5) + 7.585284113884e-02*V(u14_6)
+ + 5.563017725945e-02*V(u14_7) + 9.638354182243e-02*V(u14_8) + 1.615210771561e-01*V(u14_9) + 5.542293190956e-02*V(u14_10)
+ + -2.150042355061e-01*V(u14_11) + -2.607212960720e-02*V(u14_12) + 5.187997221947e-02*V(u14_13) + -6.970798969269e-02*V(u14_14)
+ + 8.932012319565e-02*V(u14_15) + 1.496900320053e-01*V(u14_16) + -2.412851154804e-02*V(u14_17) + 2.432727813721e-02*V(u14_18)
+ + -2.218086570501e-01*V(u14_19))
B_u23_2 u23_2 0 V = tanh_psi(-2.753336131573e-01 + 1.895276308060e-01*V(u13_0) + 1.540527045727e-01*V(u13_1) + -1.610676199198e-01*V(u13_2)
+ + -3.934964537621e-03*V(u13_3) + 1.491388678551e-01*V(u13_4) + 1.162090897560e-01*V(u13_5) + -9.158058464527e-02*V(u13_6)
+ + 1.358382701874e-01*V(u13_7) + 3.965309262276e-02*V(u13_8) + -1.837584376335e-01*V(u13_9) + 5.317336320877e-02*V(u13_10)
+ + -6.799779832363e-02*V(u13_11) + 5.633881688118e-02*V(u13_12) + -6.237995624542e-02*V(u13_13) + -2.054966539145e-01*V(u13_14)
+ + -1.630732715130e-01*V(u13_15) + 5.350658297539e-02*V(u13_16) + 1.454523801804e-01*V(u13_17) + -1.373763382435e-02*V(u13_18)
+ + -2.010378986597e-01*V(u13_19) + -2.079397439957e-02*V(u14_0) + 4.638853669167e-02*V(u14_1) + 4.094991087914e-02*V(u14_2)
+ + 2.043009996414e-01*V(u14_3) + 1.345939636230e-01*V(u14_4) + 2.152521312237e-01*V(u14_5) + -2.000673264265e-01*V(u14_6)
+ + -2.142727673054e-01*V(u14_7) + -9.878801554441e-02*V(u14_8) + -1.248012483120e-02*V(u14_9) + 1.323001086712e-01*V(u14_10)
+ + 5.800217390060e-02*V(u14_11) + 1.528589427471e-01*V(u14_12) + -1.836452037096e-01*V(u14_13) + 1.802847981453e-01*V(u14_14)
+ + -2.143193781376e-02*V(u14_15) + 2.650600671768e-02*V(u14_16) + 1.152135133743e-01*V(u14_17) + -5.003687739372e-02*V(u14_18)
+ + -6.913381814957e-02*V(u14_19))
B_u24_2 u24_2 0 V = tanh_psi(-2.753336131573e-01 + -2.079397439957e-02*V(u13_0) + 4.638853669167e-02*V(u13_1) + 4.094991087914e-02*V(u13_2)
+ + 2.043009996414e-01*V(u13_3) + 1.345939636230e-01*V(u13_4) + 2.152521312237e-01*V(u13_5) + -2.000673264265e-01*V(u13_6)
+ + -2.142727673054e-01*V(u13_7) + -9.878801554441e-02*V(u13_8) + -1.248012483120e-02*V(u13_9) + 1.323001086712e-01*V(u13_10)
+ + 5.800217390060e-02*V(u13_11) + 1.528589427471e-01*V(u13_12) + -1.836452037096e-01*V(u13_13) + 1.802847981453e-01*V(u13_14)
+ + -2.143193781376e-02*V(u13_15) + 2.650600671768e-02*V(u13_16) + 1.152135133743e-01*V(u13_17) + -5.003687739372e-02*V(u13_18)
+ + -6.913381814957e-02*V(u13_19) + 1.895276308060e-01*V(u14_0) + 1.540527045727e-01*V(u14_1) + -1.610676199198e-01*V(u14_2)
+ + -3.934964537621e-03*V(u14_3) + 1.491388678551e-01*V(u14_4) + 1.162090897560e-01*V(u14_5) + -9.158058464527e-02*V(u14_6)
+ + 1.358382701874e-01*V(u14_7) + 3.965309262276e-02*V(u14_8) + -1.837584376335e-01*V(u14_9) + 5.317336320877e-02*V(u14_10)
+ + -6.799779832363e-02*V(u14_11) + 5.633881688118e-02*V(u14_12) + -6.237995624542e-02*V(u14_13) + -2.054966539145e-01*V(u14_14)
+ + -1.630732715130e-01*V(u14_15) + 5.350658297539e-02*V(u14_16) + 1.454523801804e-01*V(u14_17) + -1.373763382435e-02*V(u14_18)
+ + -2.010378986597e-01*V(u14_19))
B_u23_3 u23_3 0 V = tanh_psi(-8.109259605408e-02 + -2.956449985504e-02*V(u13_0) + 1.918165087700e-01*V(u13_1) + 2.201344668865e-01*V(u13_2)
+ + 2.507103979588e-02*V(u13_3) + -6.489372253418e-02*V(u13_4) + 4.839172959328e-02*V(u13_5) + -1.542480289936e-01*V(u13_6)
+ + -5.943775177002e-02*V(u13_7) + 1.259253919125e-01*V(u13_8) + 1.167424917221e-01*V(u13_9) + 8.204203844070e-02*V(u13_10)
+ + 1.065957546234e-01*V(u13_11) + -2.324403822422e-02*V(u13_12) + 1.008995473385e-01*V(u13_13) + -6.023791432381e-02*V(u13_14)
+ + 1.015150547028e-01*V(u13_15) + 2.129017412663e-01*V(u13_16) + 8.256429433823e-02*V(u13_17) + -2.310270071030e-02*V(u13_18)
+ + 1.943456828594e-01*V(u13_19) + 1.063197553158e-01*V(u14_0) + 1.767319440842e-02*V(u14_1) + -1.055135652423e-01*V(u14_2)
+ + 1.613362133503e-02*V(u14_3) + 5.276516079903e-02*V(u14_4) + -1.355171650648e-01*V(u14_5) + 1.268017292023e-01*V(u14_6)
+ + 1.370017528534e-01*V(u14_7) + -1.464301049709e-01*V(u14_8) + 6.496301293373e-02*V(u14_9) + 2.027412354946e-01*V(u14_10)
+ + -1.775378286839e-01*V(u14_11) + -1.244495660067e-01*V(u14_12) + -5.932864546776e-02*V(u14_13) + -2.166275680065e-02*V(u14_14)
+ + 9.697633981705e-02*V(u14_15) + 1.495316624641e-03*V(u14_16) + 6.937140226364e-02*V(u14_17) + -2.220125049353e-01*V(u14_18)
+ + -1.754771620035e-01*V(u14_19))
B_u24_3 u24_3 0 V = tanh_psi(-8.109259605408e-02 + 1.063197553158e-01*V(u13_0) + 1.767319440842e-02*V(u13_1) + -1.055135652423e-01*V(u13_2)
+ + 1.613362133503e-02*V(u13_3) + 5.276516079903e-02*V(u13_4) + -1.355171650648e-01*V(u13_5) + 1.268017292023e-01*V(u13_6)
+ + 1.370017528534e-01*V(u13_7) + -1.464301049709e-01*V(u13_8) + 6.496301293373e-02*V(u13_9) + 2.027412354946e-01*V(u13_10)
+ + -1.775378286839e-01*V(u13_11) + -1.244495660067e-01*V(u13_12) + -5.932864546776e-02*V(u13_13) + -2.166275680065e-02*V(u13_14)
+ + 9.697633981705e-02*V(u13_15) + 1.495316624641e-03*V(u13_16) + 6.937140226364e-02*V(u13_17) + -2.220125049353e-01*V(u13_18)
+ + -1.754771620035e-01*V(u13_19) + -2.956449985504e-02*V(u14_0) + 1.918165087700e-01*V(u14_1) + 2.201344668865e-01*V(u14_2)
+ + 2.507103979588e-02*V(u14_3) + -6.489372253418e-02*V(u14_4) + 4.839172959328e-02*V(u14_5) + -1.542480289936e-01*V(u14_6)
+ + -5.943775177002e-02*V(u14_7) + 1.259253919125e-01*V(u14_8) + 1.167424917221e-01*V(u14_9) + 8.204203844070e-02*V(u14_10)
+ + 1.065957546234e-01*V(u14_11) + -2.324403822422e-02*V(u14_12) + 1.008995473385e-01*V(u14_13) + -6.023791432381e-02*V(u14_14)
+ + 1.015150547028e-01*V(u14_15) + 2.129017412663e-01*V(u14_16) + 8.256429433823e-02*V(u14_17) + -2.310270071030e-02*V(u14_18)
+ + 1.943456828594e-01*V(u14_19))
B_u23_4 u23_4 0 V = tanh_psi(-2.924871742725e-01 + -1.168356537819e-01*V(u13_0) + 1.734991669655e-01*V(u13_1) + -6.123261153698e-02*V(u13_2)
+ + -1.082319691777e-01*V(u13_3) + -3.253819048405e-02*V(u13_4) + -1.704099923372e-01*V(u13_5) + 5.691534280777e-02*V(u13_6)
+ + 1.461461186409e-01*V(u13_7) + -1.021445170045e-01*V(u13_8) + -9.253092110157e-02*V(u13_9) + 1.264914870262e-03*V(u13_10)
+ + 1.948104798794e-01*V(u13_11) + 1.648352146149e-01*V(u13_12) + -1.452634632587e-01*V(u13_13) + 1.739301681519e-01*V(u13_14)
+ + -9.757106006145e-02*V(u13_15) + 7.420763373375e-02*V(u13_16) + 1.467452943325e-02*V(u13_17) + -2.137820869684e-01*V(u13_18)
+ + 1.962147355080e-01*V(u13_19) + 2.253068983555e-02*V(u14_0) + 5.332756042480e-02*V(u14_1) + -1.643871217966e-01*V(u14_2)
+ + 2.167261838913e-01*V(u14_3) + -1.691102087498e-01*V(u14_4) + -2.223260998726e-01*V(u14_5) + -1.014180853963e-01*V(u14_6)
+ + -7.980801165104e-02*V(u14_7) + -7.674606144428e-02*V(u14_8) + 1.274342536926e-01*V(u14_9) + 2.042559683323e-01*V(u14_10)
+ + -4.470545053482e-02*V(u14_11) + -9.209935367107e-02*V(u14_12) + 1.690748929977e-01*V(u14_13) + -1.539335846901e-01*V(u14_14)
+ + -9.866635501385e-02*V(u14_15) + -6.075412034988e-03*V(u14_16) + -2.121137678623e-01*V(u14_17) + -6.874054670334e-04*V(u14_18)
+ + 2.043473124504e-01*V(u14_19))
B_u24_4 u24_4 0 V = tanh_psi(-2.924871742725e-01 + 2.253068983555e-02*V(u13_0) + 5.332756042480e-02*V(u13_1) + -1.643871217966e-01*V(u13_2)
+ + 2.167261838913e-01*V(u13_3) + -1.691102087498e-01*V(u13_4) + -2.223260998726e-01*V(u13_5) + -1.014180853963e-01*V(u13_6)
+ + -7.980801165104e-02*V(u13_7) + -7.674606144428e-02*V(u13_8) + 1.274342536926e-01*V(u13_9) + 2.042559683323e-01*V(u13_10)
+ + -4.470545053482e-02*V(u13_11) + -9.209935367107e-02*V(u13_12) + 1.690748929977e-01*V(u13_13) + -1.539335846901e-01*V(u13_14)
+ + -9.866635501385e-02*V(u13_15) + -6.075412034988e-03*V(u13_16) + -2.121137678623e-01*V(u13_17) + -6.874054670334e-04*V(u13_18)
+ + 2.043473124504e-01*V(u13_19) + -1.168356537819e-01*V(u14_0) + 1.734991669655e-01*V(u14_1) + -6.123261153698e-02*V(u14_2)
+ + -1.082319691777e-01*V(u14_3) + -3.253819048405e-02*V(u14_4) + -1.704099923372e-01*V(u14_5) + 5.691534280777e-02*V(u14_6)
+ + 1.461461186409e-01*V(u14_7) + -1.021445170045e-01*V(u14_8) + -9.253092110157e-02*V(u14_9) + 1.264914870262e-03*V(u14_10)
+ + 1.948104798794e-01*V(u14_11) + 1.648352146149e-01*V(u14_12) + -1.452634632587e-01*V(u14_13) + 1.739301681519e-01*V(u14_14)
+ + -9.757106006145e-02*V(u14_15) + 7.420763373375e-02*V(u14_16) + 1.467452943325e-02*V(u14_17) + -2.137820869684e-01*V(u14_18)
+ + 1.962147355080e-01*V(u14_19))
B_u23_5 u23_5 0 V = tanh_psi(-1.296698898077e-01 + 8.350667357445e-02*V(u13_0) + -2.148568034172e-01*V(u13_1) + -1.275949776173e-01*V(u13_2)
+ + -6.329903006554e-02*V(u13_3) + 1.940828263760e-01*V(u13_4) + -7.976447045803e-02*V(u13_5) + -6.765089929104e-02*V(u13_6)
+ + -6.555035710335e-03*V(u13_7) + 1.678435206413e-01*V(u13_8) + -9.147728979588e-02*V(u13_9) + -1.165582984686e-01*V(u13_10)
+ + 9.222733974457e-02*V(u13_11) + -5.669775605202e-02*V(u13_12) + 1.086315512657e-01*V(u13_13) + -2.198500633240e-01*V(u13_14)
+ + 1.478778421879e-01*V(u13_15) + -1.803458780050e-01*V(u13_16) + -1.643686890602e-01*V(u13_17) + -6.734290719032e-02*V(u13_18)
+ + -7.560998201370e-02*V(u13_19) + 1.352894008160e-01*V(u14_0) + -1.392004787922e-01*V(u14_1) + -8.499646186829e-02*V(u14_2)
+ + -8.465023338795e-02*V(u14_3) + 1.241241991520e-01*V(u14_4) + -1.465216279030e-01*V(u14_5) + -1.238263770938e-01*V(u14_6)
+ + -1.422310471535e-01*V(u14_7) + -1.825712919235e-01*V(u14_8) + 1.912286579609e-01*V(u14_9) + -3.373730182648e-02*V(u14_10)
+ + 3.032156825066e-02*V(u14_11) + -2.129949629307e-01*V(u14_12) + -3.218396008015e-02*V(u14_13) + 1.060649752617e-03*V(u14_14)
+ + -1.395415961742e-01*V(u14_15) + 3.876051306725e-02*V(u14_16) + 8.533620834351e-02*V(u14_17) + -4.252354800701e-02*V(u14_18)
+ + -1.828879117966e-01*V(u14_19))
B_u24_5 u24_5 0 V = tanh_psi(-1.296698898077e-01 + 1.352894008160e-01*V(u13_0) + -1.392004787922e-01*V(u13_1) + -8.499646186829e-02*V(u13_2)
+ + -8.465023338795e-02*V(u13_3) + 1.241241991520e-01*V(u13_4) + -1.465216279030e-01*V(u13_5) + -1.238263770938e-01*V(u13_6)
+ + -1.422310471535e-01*V(u13_7) + -1.825712919235e-01*V(u13_8) + 1.912286579609e-01*V(u13_9) + -3.373730182648e-02*V(u13_10)
+ + 3.032156825066e-02*V(u13_11) + -2.129949629307e-01*V(u13_12) + -3.218396008015e-02*V(u13_13) + 1.060649752617e-03*V(u13_14)
+ + -1.395415961742e-01*V(u13_15) + 3.876051306725e-02*V(u13_16) + 8.533620834351e-02*V(u13_17) + -4.252354800701e-02*V(u13_18)
+ + -1.828879117966e-01*V(u13_19) + 8.350667357445e-02*V(u14_0) + -2.148568034172e-01*V(u14_1) + -1.275949776173e-01*V(u14_2)
+ + -6.329903006554e-02*V(u14_3) + 1.940828263760e-01*V(u14_4) + -7.976447045803e-02*V(u14_5) + -6.765089929104e-02*V(u14_6)
+ + -6.555035710335e-03*V(u14_7) + 1.678435206413e-01*V(u14_8) + -9.147728979588e-02*V(u14_9) + -1.165582984686e-01*V(u14_10)
+ + 9.222733974457e-02*V(u14_11) + -5.669775605202e-02*V(u14_12) + 1.086315512657e-01*V(u14_13) + -2.198500633240e-01*V(u14_14)
+ + 1.478778421879e-01*V(u14_15) + -1.803458780050e-01*V(u14_16) + -1.643686890602e-01*V(u14_17) + -6.734290719032e-02*V(u14_18)
+ + -7.560998201370e-02*V(u14_19))
B_u23_6 u23_6 0 V = tanh_psi(1.533342003822e-01 + -2.016437053680e-01*V(u13_0) + 1.316756010056e-03*V(u13_1) + -1.331088840961e-01*V(u13_2)
+ + 6.027758121490e-02*V(u13_3) + 1.342629194260e-01*V(u13_4) + -1.348417103291e-01*V(u13_5) + -1.688975244761e-01*V(u13_6)
+ + 1.366890370846e-01*V(u13_7) + -1.647967696190e-01*V(u13_8) + -6.511113047600e-02*V(u13_9) + 4.442074894905e-02*V(u13_10)
+ + 9.346094727516e-02*V(u13_11) + 8.648264408112e-02*V(u13_12) + 1.216429769993e-01*V(u13_13) + -2.103582024574e-03*V(u13_14)
+ + -5.411404371262e-02*V(u13_15) + 9.234026074409e-02*V(u13_16) + 9.536567330360e-02*V(u13_17) + 8.122521638870e-02*V(u13_18)
+ + 2.918198704720e-02*V(u13_19) + 3.602269291878e-02*V(u14_0) + 1.118198931217e-01*V(u14_1) + 7.519471645355e-02*V(u14_2)
+ + 7.507565617561e-02*V(u14_3) + 1.159795224667e-01*V(u14_4) + 3.984823822975e-02*V(u14_5) + -1.195921748877e-01*V(u14_6)
+ + -7.657900452614e-02*V(u14_7) + 9.657192230225e-02*V(u14_8) + -1.109606400132e-01*V(u14_9) + 7.791200280190e-02*V(u14_10)
+ + 2.002508342266e-01*V(u14_11) + -1.014910936356e-01*V(u14_12) + -2.053037285805e-02*V(u14_13) + -2.991613745689e-02*V(u14_14)
+ + -2.357582747936e-02*V(u14_15) + -9.838767349720e-02*V(u14_16) + -8.065089583397e-03*V(u14_17) + 1.175369620323e-01*V(u14_18)
+ + -1.478721201420e-02*V(u14_19))
B_u24_6 u24_6 0 V = tanh_psi(1.533342003822e-01 + 3.602269291878e-02*V(u13_0) + 1.118198931217e-01*V(u13_1) + 7.519471645355e-02*V(u13_2)
+ + 7.507565617561e-02*V(u13_3) + 1.159795224667e-01*V(u13_4) + 3.984823822975e-02*V(u13_5) + -1.195921748877e-01*V(u13_6)
+ + -7.657900452614e-02*V(u13_7) + 9.657192230225e-02*V(u13_8) + -1.109606400132e-01*V(u13_9) + 7.791200280190e-02*V(u13_10)
+ + 2.002508342266e-01*V(u13_11) + -1.014910936356e-01*V(u13_12) + -2.053037285805e-02*V(u13_13) + -2.991613745689e-02*V(u13_14)
+ + -2.357582747936e-02*V(u13_15) + -9.838767349720e-02*V(u13_16) + -8.065089583397e-03*V(u13_17) + 1.175369620323e-01*V(u13_18)
+ + -1.478721201420e-02*V(u13_19) + -2.016437053680e-01*V(u14_0) + 1.316756010056e-03*V(u14_1) + -1.331088840961e-01*V(u14_2)
+ + 6.027758121490e-02*V(u14_3) + 1.342629194260e-01*V(u14_4) + -1.348417103291e-01*V(u14_5) + -1.688975244761e-01*V(u14_6)
+ + 1.366890370846e-01*V(u14_7) + -1.647967696190e-01*V(u14_8) + -6.511113047600e-02*V(u14_9) + 4.442074894905e-02*V(u14_10)
+ + 9.346094727516e-02*V(u14_11) + 8.648264408112e-02*V(u14_12) + 1.216429769993e-01*V(u14_13) + -2.103582024574e-03*V(u14_14)
+ + -5.411404371262e-02*V(u14_15) + 9.234026074409e-02*V(u14_16) + 9.536567330360e-02*V(u14_17) + 8.122521638870e-02*V(u14_18)
+ + 2.918198704720e-02*V(u14_19))
B_u23_7 u23_7 0 V = tanh_psi(-1.134560853243e-01 + 9.466937184334e-02*V(u13_0) + -2.155687808990e-01*V(u13_1) + -2.602879703045e-02*V(u13_2)
+ + -7.067221403122e-02*V(u13_3) + 2.443313598633e-02*V(u13_4) + 1.289599537849e-01*V(u13_5) + 1.594802737236e-01*V(u13_6)
+ + -8.874726295471e-02*V(u13_7) + -1.049857512116e-01*V(u13_8) + 6.097513437271e-02*V(u13_9) + -1.768895983696e-02*V(u13_10)
+ + 9.418591856956e-02*V(u13_11) + -8.255247771740e-02*V(u13_12) + -1.962505877018e-01*V(u13_13) + 9.520956873894e-02*V(u13_14)
+ + 1.942159831524e-01*V(u13_15) + 1.742480695248e-01*V(u13_16) + -1.130685433745e-01*V(u13_17) + 2.613160014153e-02*V(u13_18)
+ + 1.613665223122e-01*V(u13_19) + 2.905943989754e-02*V(u14_0) + -7.871286571026e-02*V(u14_1) + -3.790068626404e-02*V(u14_2)
+ + 1.728915572166e-01*V(u14_3) + 1.136275529861e-01*V(u14_4) + -1.758023351431e-01*V(u14_5) + 1.805080175400e-01*V(u14_6)
+ + -1.361769288778e-01*V(u14_7) + -7.672332227230e-02*V(u14_8) + 2.090077996254e-01*V(u14_9) + -6.275404989719e-02*V(u14_10)
+ + 4.844218492508e-03*V(u14_11) + -2.936676144600e-02*V(u14_12) + -1.721129417419e-01*V(u14_13) + 1.168784499168e-01*V(u14_14)
+ + 1.667312085629e-01*V(u14_15) + -9.516631066799e-02*V(u14_16) + 9.991341829300e-02*V(u14_17) + 3.752610087395e-02*V(u14_18)
+ + 1.069027185440e-01*V(u14_19))
B_u24_7 u24_7 0 V = tanh_psi(-1.134560853243e-01 + 2.905943989754e-02*V(u13_0) + -7.871286571026e-02*V(u13_1) + -3.790068626404e-02*V(u13_2)
+ + 1.728915572166e-01*V(u13_3) + 1.136275529861e-01*V(u13_4) + -1.758023351431e-01*V(u13_5) + 1.805080175400e-01*V(u13_6)
+ + -1.361769288778e-01*V(u13_7) + -7.672332227230e-02*V(u13_8) + 2.090077996254e-01*V(u13_9) + -6.275404989719e-02*V(u13_10)
+ + 4.844218492508e-03*V(u13_11) + -2.936676144600e-02*V(u13_12) + -1.721129417419e-01*V(u13_13) + 1.168784499168e-01*V(u13_14)
+ + 1.667312085629e-01*V(u13_15) + -9.516631066799e-02*V(u13_16) + 9.991341829300e-02*V(u13_17) + 3.752610087395e-02*V(u13_18)
+ + 1.069027185440e-01*V(u13_19) + 9.466937184334e-02*V(u14_0) + -2.155687808990e-01*V(u14_1) + -2.602879703045e-02*V(u14_2)
+ + -7.067221403122e-02*V(u14_3) + 2.443313598633e-02*V(u14_4) + 1.289599537849e-01*V(u14_5) + 1.594802737236e-01*V(u14_6)
+ + -8.874726295471e-02*V(u14_7) + -1.049857512116e-01*V(u14_8) + 6.097513437271e-02*V(u14_9) + -1.768895983696e-02*V(u14_10)
+ + 9.418591856956e-02*V(u14_11) + -8.255247771740e-02*V(u14_12) + -1.962505877018e-01*V(u14_13) + 9.520956873894e-02*V(u14_14)
+ + 1.942159831524e-01*V(u14_15) + 1.742480695248e-01*V(u14_16) + -1.130685433745e-01*V(u14_17) + 2.613160014153e-02*V(u14_18)
+ + 1.613665223122e-01*V(u14_19))
B_u23_8 u23_8 0 V = tanh_psi(1.091450601816e-01 + 8.160904049873e-02*V(u13_0) + -1.211911663413e-01*V(u13_1) + 2.799332141876e-03*V(u13_2)
+ + -1.014027297497e-01*V(u13_3) + 6.220963597298e-02*V(u13_4) + 4.920169711113e-02*V(u13_5) + -1.530877947807e-01*V(u13_6)
+ + -2.467247843742e-02*V(u13_7) + 3.351792693138e-02*V(u13_8) + -1.252386122942e-01*V(u13_9) + -1.699949502945e-01*V(u13_10)
+ + 1.751749515533e-01*V(u13_11) + 1.945300400257e-01*V(u13_12) + -7.396958768368e-02*V(u13_13) + 1.382251381874e-01*V(u13_14)
+ + 1.298866569996e-01*V(u13_15) + -5.209569633007e-02*V(u13_16) + -1.484320461750e-01*V(u13_17) + 1.980972588062e-01*V(u13_18)
+ + 1.856419742107e-01*V(u13_19) + 1.660691499710e-01*V(u14_0) + -2.052094638348e-01*V(u14_1) + 1.182695627213e-01*V(u14_2)
+ + -7.917627692223e-03*V(u14_3) + -1.802918463945e-01*V(u14_4) + -2.090239524841e-02*V(u14_5) + -9.054531157017e-02*V(u14_6)
+ + -9.121109545231e-02*V(u14_7) + 1.999965906143e-01*V(u14_8) + 1.119387447834e-01*V(u14_9) + -1.599338054657e-01*V(u14_10)
+ + -1.892070025206e-01*V(u14_11) + -1.175957471132e-01*V(u14_12) + -1.646249890327e-01*V(u14_13) + 5.796620249748e-02*V(u14_14)
+ + -1.313091963530e-01*V(u14_15) + 8.364978432655e-02*V(u14_16) + -9.287971258163e-02*V(u14_17) + -1.668457686901e-02*V(u14_18)
+ + 2.708896994591e-03*V(u14_19))
B_u24_8 u24_8 0 V = tanh_psi(1.091450601816e-01 + 1.660691499710e-01*V(u13_0) + -2.052094638348e-01*V(u13_1) + 1.182695627213e-01*V(u13_2)
+ + -7.917627692223e-03*V(u13_3) + -1.802918463945e-01*V(u13_4) + -2.090239524841e-02*V(u13_5) + -9.054531157017e-02*V(u13_6)
+ + -9.121109545231e-02*V(u13_7) + 1.999965906143e-01*V(u13_8) + 1.119387447834e-01*V(u13_9) + -1.599338054657e-01*V(u13_10)
+ + -1.892070025206e-01*V(u13_11) + -1.175957471132e-01*V(u13_12) + -1.646249890327e-01*V(u13_13) + 5.796620249748e-02*V(u13_14)
+ + -1.313091963530e-01*V(u13_15) + 8.364978432655e-02*V(u13_16) + -9.287971258163e-02*V(u13_17) + -1.668457686901e-02*V(u13_18)
+ + 2.708896994591e-03*V(u13_19) + 8.160904049873e-02*V(u14_0) + -1.211911663413e-01*V(u14_1) + 2.799332141876e-03*V(u14_2)
+ + -1.014027297497e-01*V(u14_3) + 6.220963597298e-02*V(u14_4) + 4.920169711113e-02*V(u14_5) + -1.530877947807e-01*V(u14_6)
+ + -2.467247843742e-02*V(u14_7) + 3.351792693138e-02*V(u14_8) + -1.252386122942e-01*V(u14_9) + -1.699949502945e-01*V(u14_10)
+ + 1.751749515533e-01*V(u14_11) + 1.945300400257e-01*V(u14_12) + -7.396958768368e-02*V(u14_13) + 1.382251381874e-01*V(u14_14)
+ + 1.298866569996e-01*V(u14_15) + -5.209569633007e-02*V(u14_16) + -1.484320461750e-01*V(u14_17) + 1.980972588062e-01*V(u14_18)
+ + 1.856419742107e-01*V(u14_19))
B_u23_9 u23_9 0 V = tanh_psi(-1.880507171154e-01 + 6.285506486893e-02*V(u13_0) + -5.013488233089e-02*V(u13_1) + 1.979690194130e-01*V(u13_2)
+ + 2.116891145706e-01*V(u13_3) + -1.698566973209e-01*V(u13_4) + -4.593667387962e-02*V(u13_5) + 1.945950090885e-01*V(u13_6)
+ + 7.288968563080e-02*V(u13_7) + -1.894203126431e-01*V(u13_8) + 9.952735900879e-02*V(u13_9) + 1.090325713158e-01*V(u13_10)
+ + -1.557685732841e-01*V(u13_11) + -4.035501182079e-02*V(u13_12) + -3.131520748138e-02*V(u13_13) + -1.228119432926e-02*V(u13_14)
+ + -2.139724940062e-01*V(u13_15) + -6.247656047344e-02*V(u13_16) + -4.752285778522e-02*V(u13_17) + -8.424529433250e-02*V(u13_18)
+ + 5.506199598312e-02*V(u13_19) + 1.075586080551e-01*V(u14_0) + -1.042935177684e-01*V(u14_1) + 2.009265720844e-01*V(u14_2)
+ + 9.040758013725e-03*V(u14_3) + 9.945827722549e-02*V(u14_4) + -4.074972867966e-02*V(u14_5) + 1.837413907051e-01*V(u14_6)
+ + -5.472150444984e-02*V(u14_7) + 4.069393873215e-02*V(u14_8) + -2.172114104033e-01*V(u14_9) + 5.648216605186e-02*V(u14_10)
+ + 4.000040888786e-02*V(u14_11) + 3.407993912697e-02*V(u14_12) + 1.469527184963e-01*V(u14_13) + -4.380363225937e-02*V(u14_14)
+ + -6.206762790680e-02*V(u14_15) + -1.454943716526e-01*V(u14_16) + -6.314845383167e-02*V(u14_17) + -8.637276291847e-02*V(u14_18)
+ + 2.207036316395e-01*V(u14_19))