* ngspice behavioral subcircuit (B-sources)
* Generated from model: PsiNN_burgers
.subckt psi_nn_psinn_burgers in0 in1 out0 vdd vss

* Activation (fallback-friendly): use tanh() if supported by ngspice, else replace with rational approx
.func tanh_psi(x) { tanh(x) }

B_u1p_0 u1p_0 0 V = tanh_psi(8.668856620789e-01 + -3.981690406799e-01*V(in0) + -1.969884634018e-01*V(in1))
B_u1m_0 u1m_0 0 V = tanh_psi(8.668856620789e-01 + -3.981690406799e-01*V(in0) + (-1)*(-1.969884634018e-01*V(in1)))
B_u1p_1 u1p_1 0 V = tanh_psi(6.342871189117e-01 + -8.205217123032e-01*V(in0) + 7.848736047745e-01*V(in1))
B_u1m_1 u1m_1 0 V = tanh_psi(6.342871189117e-01 + -8.205217123032e-01*V(in0) + (-1)*(7.848736047745e-01*V(in1)))
B_u1p_2 u1p_2 0 V = tanh_psi(9.264670610428e-01 + -3.798186779022e-02*V(in0) + -8.483624458313e-02*V(in1))
B_u1m_2 u1m_2 0 V = tanh_psi(9.264670610428e-01 + -3.798186779022e-02*V(in0) + (-1)*(-8.483624458313e-02*V(in1)))
B_u1p_3 u1p_3 0 V = tanh_psi(3.785117864609e-01 + -8.562246561050e-01*V(in0) + 7.593704462051e-01*V(in1))
B_u1m_3 u1m_3 0 V = tanh_psi(3.785117864609e-01 + -8.562246561050e-01*V(in0) + (-1)*(7.593704462051e-01*V(in1)))
B_u1p_4 u1p_4 0 V = tanh_psi(-6.512863636017e-01 + 9.649646282196e-02*V(in0) + -4.379376173019e-01*V(in1))
B_u1m_4 u1m_4 0 V = tanh_psi(-6.512863636017e-01 + 9.649646282196e-02*V(in0) + (-1)*(-4.379376173019e-01*V(in1)))
B_u1p_5 u1p_5 0 V = tanh_psi(1.098680496216e-02 + -2.397497892380e-01*V(in0) + 4.065411090851e-01*V(in1))
B_u1m_5 u1m_5 0 V = tanh_psi(1.098680496216e-02 + -2.397497892380e-01*V(in0) + (-1)*(4.065411090851e-01*V(in1)))
B_u1p_6 u1p_6 0 V = tanh_psi(5.707535743713e-01 + -6.759240627289e-01*V(in0) + -8.787122964859e-01*V(in1))
B_u1m_6 u1m_6 0 V = tanh_psi(5.707535743713e-01 + -6.759240627289e-01*V(in0) + (-1)*(-8.787122964859e-01*V(in1)))
B_u1p_7 u1p_7 0 V = tanh_psi(-9.706660509109e-01 + -9.442222118378e-02*V(in0) + -3.238424062729e-01*V(in1))
B_u1m_7 u1m_7 0 V = tanh_psi(-9.706660509109e-01 + -9.442222118378e-02*V(in0) + (-1)*(-3.238424062729e-01*V(in1)))
B_u1p_8 u1p_8 0 V = tanh_psi(-6.885164976120e-01 + 3.249348402023e-01*V(in0) + 9.765121936798e-01*V(in1))
B_u1m_8 u1m_8 0 V = tanh_psi(-6.885164976120e-01 + 3.249348402023e-01*V(in0) + (-1)*(9.765121936798e-01*V(in1)))
B_u1p_9 u1p_9 0 V = tanh_psi(-8.247464895248e-01 + -2.036794424057e-01*V(in0) + 9.787846803665e-01*V(in1))
B_u1m_9 u1m_9 0 V = tanh_psi(-8.247464895248e-01 + -2.036794424057e-01*V(in0) + (-1)*(9.787846803665e-01*V(in1)))
B_u1p_10 u1p_10 0 V = tanh_psi(2.567453384399e-01 + 4.302449226379e-01*V(in0) + -8.005249500275e-02*V(in1))
B_u1m_10 u1m_10 0 V = tanh_psi(2.567453384399e-01 + 4.302449226379e-01*V(in0) + (-1)*(-8.005249500275e-02*V(in1)))
B_u1p_11 u1p_11 0 V = tanh_psi(8.087372779846e-01 + 4.807125329971e-01*V(in0) + -1.358202695847e-01*V(in1))
B_u1m_11 u1m_11 0 V = tanh_psi(8.087372779846e-01 + 4.807125329971e-01*V(in0) + (-1)*(-1.358202695847e-01*V(in1)))
B_u1p_12 u1p_12 0 V = tanh_psi(-5.975322723389e-01 + 6.096847057343e-01*V(in0) + 5.500133037567e-01*V(in1))
B_u1m_12 u1m_12 0 V = tanh_psi(-5.975322723389e-01 + 6.096847057343e-01*V(in0) + (-1)*(5.500133037567e-01*V(in1)))
B_u1p_13 u1p_13 0 V = tanh_psi(-3.085759878159e-01 + 4.325067996979e-02*V(in0) + -4.672693014145e-01*V(in1))
B_u1m_13 u1m_13 0 V = tanh_psi(-3.085759878159e-01 + 4.325067996979e-02*V(in0) + (-1)*(-4.672693014145e-01*V(in1)))
B_u1p_14 u1p_14 0 V = tanh_psi(-9.933235645294e-01 + 6.558771133423e-01*V(in0) + 4.463710784912e-01*V(in1))
B_u1m_14 u1m_14 0 V = tanh_psi(-9.933235645294e-01 + 6.558771133423e-01*V(in0) + (-1)*(4.463710784912e-01*V(in1)))
B_u1p_15 u1p_15 0 V = tanh_psi(-3.185240030289e-01 + 6.553682088852e-01*V(in0) + -2.739950418472e-01*V(in1))
B_u1m_15 u1m_15 0 V = tanh_psi(-3.185240030289e-01 + 6.553682088852e-01*V(in0) + (-1)*(-2.739950418472e-01*V(in1)))
B_u1p_16 u1p_16 0 V = tanh_psi(-9.608575105667e-01 + -8.734289407730e-01*V(in0) + 9.083031415939e-01*V(in1))
B_u1m_16 u1m_16 0 V = tanh_psi(-9.608575105667e-01 + -8.734289407730e-01*V(in0) + (-1)*(9.083031415939e-01*V(in1)))
B_u1p_17 u1p_17 0 V = tanh_psi(4.706679582596e-01 + 2.024590969086e-02*V(in0) + -9.608633518219e-01*V(in1))
B_u1m_17 u1m_17 0 V = tanh_psi(4.706679582596e-01 + 2.024590969086e-02*V(in0) + (-1)*(-9.608633518219e-01*V(in1)))
B_u1p_18 u1p_18 0 V = tanh_psi(-6.856670379639e-01 + -1.681953668594e-01*V(in0) + 8.587348461151e-02*V(in1))
B_u1m_18 u1m_18 0 V = tanh_psi(-6.856670379639e-01 + -1.681953668594e-01*V(in0) + (-1)*(8.587348461151e-02*V(in1)))
B_u1p_19 u1p_19 0 V = tanh_psi(-6.401425600052e-01 + 1.162674427032e-01*V(in0) + -7.768144607544e-01*V(in1))
B_u1m_19 u1m_19 0 V = tanh_psi(-6.401425600052e-01 + 1.162674427032e-01*V(in0) + (-1)*(-7.768144607544e-01*V(in1)))
B_u2a_0 u2a_0 0 V = tanh_psi(5.034162104130e-02 + 2.128101587296e-01*V(u1p_0) + 1.705591678619e-01*V(u1p_1) + -1.660106480122e-01*V(u1p_2)
+ + 1.452274620533e-01*V(u1p_3) + -1.385001838207e-01*V(u1p_4) + -6.884902715683e-03*V(u1p_5) + 3.886032104492e-02*V(u1p_6)
+ + 1.961986124516e-01*V(u1p_7) + -1.448850780725e-01*V(u1p_8) + -4.922452569008e-02*V(u1p_9) + -1.904224157333e-01*V(u1p_10)
+ + -2.225336730480e-01*V(u1p_11) + -1.471883356571e-01*V(u1p_12) + -1.588267832994e-01*V(u1p_13) + 2.093329429626e-01*V(u1p_14)
+ + 1.198337674141e-01*V(u1p_15) + -1.388807594776e-02*V(u1p_16) + -2.176393568516e-02*V(u1p_17) + 1.104081571102e-01*V(u1p_18)
+ + -1.343870609999e-01*V(u1p_19) + 5.860885977745e-02*V(u1m_0) + -1.094810664654e-02*V(u1m_1) + 8.004984259605e-02*V(u1m_2)
+ + 1.569007635117e-01*V(u1m_3) + -5.736637115479e-02*V(u1m_4) + -7.305976748466e-02*V(u1m_5) + 5.592474341393e-02*V(u1m_6)
+ + 1.369167864323e-02*V(u1m_7) + 2.166581749916e-01*V(u1m_8) + 1.534524559975e-02*V(u1m_9) + 1.774801611900e-01*V(u1m_10)
+ + -2.166749536991e-01*V(u1m_11) + 2.027099132538e-01*V(u1m_12) + 1.110502779484e-01*V(u1m_13) + 4.960280656815e-02*V(u1m_14)
+ + -7.500165700912e-02*V(u1m_15) + 1.699292659760e-01*V(u1m_16) + 7.934957742691e-03*V(u1m_17) + -1.897763013840e-01*V(u1m_18)
+ + 1.165036559105e-01*V(u1m_19))
B_u2b_0 u2b_0 0 V = tanh_psi(5.034162104130e-02 + 5.860885977745e-02*V(u1p_0) + -1.094810664654e-02*V(u1p_1) + 8.004984259605e-02*V(u1p_2)
+ + 1.569007635117e-01*V(u1p_3) + -5.736637115479e-02*V(u1p_4) + -7.305976748466e-02*V(u1p_5) + 5.592474341393e-02*V(u1p_6)
+ + 1.369167864323e-02*V(u1p_7) + 2.166581749916e-01*V(u1p_8) + 1.534524559975e-02*V(u1p_9) + 1.774801611900e-01*V(u1p_10)
+ + -2.166749536991e-01*V(u1p_11) + 2.027099132538e-01*V(u1p_12) + 1.110502779484e-01*V(u1p_13) + 4.960280656815e-02*V(u1p_14)
+ + -7.500165700912e-02*V(u1p_15) + 1.699292659760e-01*V(u1p_16) + 7.934957742691e-03*V(u1p_17) + -1.897763013840e-01*V(u1p_18)
+ + 1.165036559105e-01*V(u1p_19) + 2.128101587296e-01*V(u1m_0) + 1.705591678619e-01*V(u1m_1) + -1.660106480122e-01*V(u1m_2)
+ + 1.452274620533e-01*V(u1m_3) + -1.385001838207e-01*V(u1m_4) + -6.884902715683e-03*V(u1m_5) + 3.886032104492e-02*V(u1m_6)
+ + 1.961986124516e-01*V(u1m_7) + -1.448850780725e-01*V(u1m_8) + -4.922452569008e-02*V(u1m_9) + -1.904224157333e-01*V(u1m_10)
+ + -2.225336730480e-01*V(u1m_11) + -1.471883356571e-01*V(u1m_12) + -1.588267832994e-01*V(u1m_13) + 2.093329429626e-01*V(u1m_14)
+ + 1.198337674141e-01*V(u1m_15) + -1.388807594776e-02*V(u1m_16) + -2.176393568516e-02*V(u1m_17) + 1.104081571102e-01*V(u1m_18)
+ + -1.343870609999e-01*V(u1m_19))
B_u2c_0 u2c_0 0 V = tanh_psi(0.0 + 2.067486345768e-01*(V(u1p_0) + (-1)*V(u1m_0)) + -2.261252701283e-02*(V(u1p_1) + (-1)*V(u1m_1))
+ + -1.154354140162e-01*(V(u1p_2) + (-1)*V(u1m_2)) + 1.082925498486e-01*(V(u1p_3) + (-1)*V(u1m_3)) + 1.480919122696e-01*(V(u1p_4)
+ + (-1)*V(u1m_4)) + 2.184172868729e-01*(V(u1p_5) + (-1)*V(u1m_5)) + -1.205638125539e-01*(V(u1p_6) + (-1)*V(u1m_6))
+ + -1.390144377947e-01*(V(u1p_7) + (-1)*V(u1m_7)) + -1.186159253120e-01*(V(u1p_8) + (-1)*V(u1m_8)) + -3.173339366913e-02*(V(u1p_9)
+ + (-1)*V(u1m_9)) + 4.454585909843e-02*(V(u1p_10) + (-1)*V(u1m_10)) + 8.521136641502e-02*(V(u1p_11) + (-1)*V(u1m_11))
+ + -2.099081724882e-01*(V(u1p_12) + (-1)*V(u1m_12)) + 6.849381327629e-02*(V(u1p_13) + (-1)*V(u1m_13)) + 1.944413781166e-01*(V(u1p_14)
+ + (-1)*V(u1m_14)) + 9.259343147278e-03*(V(u1p_15) + (-1)*V(u1m_15)) + 7.678011059761e-02*(V(u1p_16) + (-1)*V(u1m_16))
+ + -1.182915493846e-01*(V(u1p_17) + (-1)*V(u1m_17)) + 9.840413928032e-02*(V(u1p_18) + (-1)*V(u1m_18)) + 1.524708271027e-01*(V(u1p_19)
+ + (-1)*V(u1m_19)))
B_u2a_1 u2a_1 0 V = tanh_psi(1.618932932615e-01 + -2.104981243610e-01*V(u1p_0) + 1.202766895294e-01*V(u1p_1) + 1.249209046364e-02*V(u1p_2)
+ + -1.363043189049e-01*V(u1p_3) + 1.005745828152e-01*V(u1p_4) + -3.644995391369e-02*V(u1p_5) + 9.246608614922e-02*V(u1p_6)
+ + 2.189127802849e-01*V(u1p_7) + 7.821774482727e-02*V(u1p_8) + -2.894940972328e-02*V(u1p_9) + -1.611749827862e-02*V(u1p_10)
+ + -6.432281434536e-02*V(u1p_11) + 1.924041211605e-01*V(u1p_12) + -2.111572176218e-01*V(u1p_13) + 1.340722739697e-01*V(u1p_14)
+ + 8.059597015381e-02*V(u1p_15) + -1.170441284776e-01*V(u1p_16) + 2.235240340233e-01*V(u1p_17) + -4.316478967667e-02*V(u1p_18)
+ + -8.587597310543e-02*V(u1p_19) + 1.634362041950e-01*V(u1m_0) + -1.114525273442e-01*V(u1m_1) + 2.412776648998e-02*V(u1m_2)
+ + 2.319616079330e-02*V(u1m_3) + -1.975823193789e-01*V(u1m_4) + 5.406910181046e-02*V(u1m_5) + -3.069490194321e-03*V(u1m_6)
+ + 2.022019326687e-01*V(u1m_7) + -1.026756092906e-01*V(u1m_8) + -1.936025023460e-01*V(u1m_9) + -1.079176962376e-01*V(u1m_10)
+ + 8.259499073029e-02*V(u1m_11) + -1.404038071632e-01*V(u1m_12) + -1.409964263439e-01*V(u1m_13) + -7.498334348202e-02*V(u1m_14)
+ + -1.044262647629e-01*V(u1m_15) + -1.131351590157e-01*V(u1m_16) + 1.862905025482e-01*V(u1m_17) + 1.277655065060e-01*V(u1m_18)
+ + -9.052240848541e-02*V(u1m_19))
B_u2b_1 u2b_1 0 V = tanh_psi(1.618932932615e-01 + 1.634362041950e-01*V(u1p_0) + -1.114525273442e-01*V(u1p_1) + 2.412776648998e-02*V(u1p_2)
+ + 2.319616079330e-02*V(u1p_3) + -1.975823193789e-01*V(u1p_4) + 5.406910181046e-02*V(u1p_5) + -3.069490194321e-03*V(u1p_6)
+ + 2.022019326687e-01*V(u1p_7) + -1.026756092906e-01*V(u1p_8) + -1.936025023460e-01*V(u1p_9) + -1.079176962376e-01*V(u1p_10)
+ + 8.259499073029e-02*V(u1p_11) + -1.404038071632e-01*V(u1p_12) + -1.409964263439e-01*V(u1p_13) + -7.498334348202e-02*V(u1p_14)
+ + -1.044262647629e-01*V(u1p_15) + -1.131351590157e-01*V(u1p_16) + 1.862905025482e-01*V(u1p_17) + 1.277655065060e-01*V(u1p_18)
+ + -9.052240848541e-02*V(u1p_19) + -2.104981243610e-01*V(u1m_0) + 1.202766895294e-01*V(u1m_1) + 1.249209046364e-02*V(u1m_2)
+ + -1.363043189049e-01*V(u1m_3) + 1.005745828152e-01*V(u1m_4) + -3.644995391369e-02*V(u1m_5) + 9.246608614922e-02*V(u1m_6)
+ + 2.189127802849e-01*V(u1m_7) + 7.821774482727e-02*V(u1m_8) + -2.894940972328e-02*V(u1m_9) + -1.611749827862e-02*V(u1m_10)
+ + -6.432281434536e-02*V(u1m_11) + 1.924041211605e-01*V(u1m_12) + -2.111572176218e-01*V(u1m_13) + 1.340722739697e-01*V(u1m_14)
+ + 8.059597015381e-02*V(u1m_15) + -1.170441284776e-01*V(u1m_16) + 2.235240340233e-01*V(u1m_17) + -4.316478967667e-02*V(u1m_18)
+ + -8.587597310543e-02*V(u1m_19))
B_u2c_1 u2c_1 0 V = tanh_psi(0.0 + 1.322577893734e-01*(V(u1p_0) + (-1)*V(u1m_0)) + 6.117492914200e-03*(V(u1p_1) + (-1)*V(u1m_1))
+ + 5.362692475319e-02*(V(u1p_2) + (-1)*V(u1m_2)) + 3.711703419685e-02*(V(u1p_3) + (-1)*V(u1m_3)) + 2.104170322418e-01*(V(u1p_4)
+ + (-1)*V(u1m_4)) + -1.129637062550e-01*(V(u1p_5) + (-1)*V(u1m_5)) + -7.027824223042e-02*(V(u1p_6) + (-1)*V(u1m_6))
+ + 2.018493413925e-02*(V(u1p_7) + (-1)*V(u1m_7)) + -1.445212364197e-01*(V(u1p_8) + (-1)*V(u1m_8)) + -1.092550158501e-02*(V(u1p_9)
+ + (-1)*V(u1m_9)) + -1.808278262615e-01*(V(u1p_10) + (-1)*V(u1m_10)) + 1.050741672516e-01*(V(u1p_11) + (-1)*V(u1m_11))
+ + -4.420328140259e-02*(V(u1p_12) + (-1)*V(u1m_12)) + 5.615136027336e-02*(V(u1p_13) + (-1)*V(u1m_13))
+ + -1.226402893662e-01*(V(u1p_14) + (-1)*V(u1m_14)) + 1.357417702675e-01*(V(u1p_15) + (-1)*V(u1m_15))
+ + -1.005104705691e-01*(V(u1p_16) + (-1)*V(u1m_16)) + -1.534315943718e-01*(V(u1p_17) + (-1)*V(u1m_17))
+ + -1.556794941425e-01*(V(u1p_18) + (-1)*V(u1m_18)) + -1.624975800514e-01*(V(u1p_19) + (-1)*V(u1m_19)))
B_u2a_2 u2a_2 0 V = tanh_psi(-3.378880620003e-01 + 1.407382786274e-01*V(u1p_0) + 2.002112567425e-01*V(u1p_1) + 7.116436958313e-03*V(u1p_2)
+ + 2.026466131210e-01*V(u1p_3) + -8.188287913799e-02*V(u1p_4) + 3.207176923752e-03*V(u1p_5) + -3.131516277790e-02*V(u1p_6)
+ + 1.129356324673e-01*V(u1p_7) + -1.737996488810e-01*V(u1p_8) + 1.128564178944e-01*V(u1p_9) + 8.042323589325e-02*V(u1p_10)
+ + 3.867527842522e-02*V(u1p_11) + -1.359773874283e-01*V(u1p_12) + 1.179875731468e-01*V(u1p_13) + 9.016263484955e-02*V(u1p_14)
+ + -2.096267789602e-01*V(u1p_15) + -1.058997288346e-01*V(u1p_16) + -1.962925493717e-01*V(u1p_17) + -1.598631441593e-01*V(u1p_18)
+ + 7.738000154495e-02*V(u1p_19) + 1.110349297523e-01*V(u1m_0) + 3.986474871635e-02*V(u1m_1) + 2.204366326332e-01*V(u1m_2)
+ + 1.056722402573e-01*V(u1m_3) + -1.978406906128e-01*V(u1m_4) + -1.634847819805e-01*V(u1m_5) + 1.830061972141e-01*V(u1m_6)
+ + -2.071774452925e-01*V(u1m_7) + 1.193797886372e-01*V(u1m_8) + 1.082946062088e-01*V(u1m_9) + -1.485439538956e-01*V(u1m_10)
+ + -5.762284994125e-02*V(u1m_11) + 2.465304732323e-02*V(u1m_12) + -3.733760118484e-02*V(u1m_13) + 1.912946999073e-02*V(u1m_14)
+ + 1.109873056412e-01*V(u1m_15) + -1.456275284290e-01*V(u1m_16) + -2.220343053341e-01*V(u1m_17) + 7.713854312897e-02*V(u1m_18)
+ + 5.824449658394e-02*V(u1m_19))
B_u2b_2 u2b_2 0 V = tanh_psi(-3.378880620003e-01 + 1.110349297523e-01*V(u1p_0) + 3.986474871635e-02*V(u1p_1) + 2.204366326332e-01*V(u1p_2)
+ + 1.056722402573e-01*V(u1p_3) + -1.978406906128e-01*V(u1p_4) + -1.634847819805e-01*V(u1p_5) + 1.830061972141e-01*V(u1p_6)
+ + -2.071774452925e-01*V(u1p_7) + 1.193797886372e-01*V(u1p_8) + 1.082946062088e-01*V(u1p_9) + -1.485439538956e-01*V(u1p_10)
+ + -5.762284994125e-02*V(u1p_11) + 2.465304732323e-02*V(u1p_12) + -3.733760118484e-02*V(u1p_13) + 1.912946999073e-02*V(u1p_14)
+ + 1.109873056412e-01*V(u1p_15) + -1.456275284290e-01*V(u1p_16) + -2.220343053341e-01*V(u1p_17) + 7.713854312897e-02*V(u1p_18)
+ + 5.824449658394e-02*V(u1p_19) + 1.407382786274e-01*V(u1m_0) + 2.002112567425e-01*V(u1m_1) + 7.116436958313e-03*V(u1m_2)
+ + 2.026466131210e-01*V(u1m_3) + -8.188287913799e-02*V(u1m_4) + 3.207176923752e-03*V(u1m_5) + -3.131516277790e-02*V(u1m_6)
+ + 1.129356324673e-01*V(u1m_7) + -1.737996488810e-01*V(u1m_8) + 1.128564178944e-01*V(u1m_9) + 8.042323589325e-02*V(u1m_10)
+ + 3.867527842522e-02*V(u1m_11) + -1.359773874283e-01*V(u1m_12) + 1.179875731468e-01*V(u1m_13) + 9.016263484955e-02*V(u1m_14)
+ + -2.096267789602e-01*V(u1m_15) + -1.058997288346e-01*V(u1m_16) + -1.962925493717e-01*V(u1m_17) + -1.598631441593e-01*V(u1m_18)
+ + 7.738000154495e-02*V(u1m_19))
B_u2c_2 u2c_2 0 V = tanh_psi(0.0 + 6.124764680862e-02*(V(u1p_0) + (-1)*V(u1m_0)) + -1.290554106236e-01*(V(u1p_1) + (-1)*V(u1m_1))
+ + 9.638306498528e-02*(V(u1p_2) + (-1)*V(u1m_2)) + -1.919362545013e-01*(V(u1p_3) + (-1)*V(u1m_3)) + 1.335945129395e-01*(V(u1p_4)
+ + (-1)*V(u1m_4)) + 6.839534640312e-02*(V(u1p_5) + (-1)*V(u1m_5)) + 1.334485411644e-01*(V(u1p_6) + (-1)*V(u1m_6))
+ + 1.524864733219e-01*(V(u1p_7) + (-1)*V(u1m_7)) + 1.983577013016e-02*(V(u1p_8) + (-1)*V(u1m_8)) + 1.802118420601e-01*(V(u1p_9)
+ + (-1)*V(u1m_9)) + -1.151502430439e-01*(V(u1p_10) + (-1)*V(u1m_10)) + -1.974258273840e-01*(V(u1p_11) + (-1)*V(u1m_11))
+ + 1.852292716503e-01*(V(u1p_12) + (-1)*V(u1m_12)) + -1.913675814867e-01*(V(u1p_13) + (-1)*V(u1m_13))
+ + -1.564226448536e-01*(V(u1p_14) + (-1)*V(u1m_14)) + -1.391619443893e-02*(V(u1p_15) + (-1)*V(u1m_15))
+ + 4.868423938751e-02*(V(u1p_16) + (-1)*V(u1m_16)) + -2.148323357105e-01*(V(u1p_17) + (-1)*V(u1m_17))
+ + -1.036764308810e-01*(V(u1p_18) + (-1)*V(u1m_18)) + 2.038292586803e-01*(V(u1p_19) + (-1)*V(u1m_19)))
B_u2a_3 u2a_3 0 V = tanh_psi(9.948115050793e-02 + -1.399420648813e-01*V(u1p_0) + -1.835140883923e-01*V(u1p_1) + 1.384288966656e-01*V(u1p_2)
+ + -2.405913174152e-02*V(u1p_3) + -6.726081669331e-02*V(u1p_4) + -1.608969420195e-01*V(u1p_5) + -4.373027384281e-02*V(u1p_6)
+ + 5.498793721199e-02*V(u1p_7) + 7.528501749039e-02*V(u1p_8) + 4.178142547607e-02*V(u1p_9) + 1.189029514790e-01*V(u1p_10)
+ + -1.862311512232e-01*V(u1p_11) + 3.934293985367e-02*V(u1p_12) + 2.188123464584e-01*V(u1p_13) + 1.203055083752e-01*V(u1p_14)
+ + -4.554453492165e-02*V(u1p_15) + 3.106734156609e-02*V(u1p_16) + 5.294907093048e-02*V(u1p_17) + -2.081075012684e-01*V(u1p_18)
+ + 6.909126043320e-02*V(u1p_19) + -2.837169170380e-02*V(u1m_0) + -1.935914158821e-03*V(u1m_1) + 9.887725114822e-03*V(u1m_2)
+ + -1.430556774139e-01*V(u1m_3) + -1.591846346855e-03*V(u1m_4) + -1.309079974890e-01*V(u1m_5) + -8.249637484550e-02*V(u1m_6)
+ + 9.027755260468e-02*V(u1m_7) + -5.999006330967e-02*V(u1m_8) + -9.401299059391e-02*V(u1m_9) + -7.613837718964e-02*V(u1m_10)
+ + 1.024648249149e-01*V(u1m_11) + 1.112237572670e-02*V(u1m_12) + 6.371417641640e-02*V(u1m_13) + 8.655488491058e-04*V(u1m_14)
+ + -8.227282762527e-02*V(u1m_15) + 3.340703248978e-02*V(u1m_16) + 7.592329382896e-02*V(u1m_17) + 1.803723871708e-01*V(u1m_18)
+ + -1.591103672981e-01*V(u1m_19))
B_u2b_3 u2b_3 0 V = tanh_psi(9.948115050793e-02 + -2.837169170380e-02*V(u1p_0) + -1.935914158821e-03*V(u1p_1) + 9.887725114822e-03*V(u1p_2)
+ + -1.430556774139e-01*V(u1p_3) + -1.591846346855e-03*V(u1p_4) + -1.309079974890e-01*V(u1p_5) + -8.249637484550e-02*V(u1p_6)
+ + 9.027755260468e-02*V(u1p_7) + -5.999006330967e-02*V(u1p_8) + -9.401299059391e-02*V(u1p_9) + -7.613837718964e-02*V(u1p_10)
+ + 1.024648249149e-01*V(u1p_11) + 1.112237572670e-02*V(u1p_12) + 6.371417641640e-02*V(u1p_13) + 8.655488491058e-04*V(u1p_14)
+ + -8.227282762527e-02*V(u1p_15) + 3.340703248978e-02*V(u1p_16) + 7.592329382896e-02*V(u1p_17) + 1.803723871708e-01*V(u1p_18)
+ + -1.591103672981e-01*V(u1p_19) + -1.399420648813e-01*V(u1m_0) + -1.835140883923e-01*V(u1m_1) + 1.384288966656e-01*V(u1m_2)
+ + -2.405913174152e-02*V(u1m_3) + -6.726081669331e-02*V(u1m_4) + -1.608969420195e-01*V(u1m_5) + -4.373027384281e-02*V(u1m_6)
+ + 5.498793721199e-02*V(u1m_7) + 7.528501749039e-02*V(u1m_8) + 4.178142547607e-02*V(u1m_9) + 1.189029514790e-01*V(u1m_10)
+ + -1.862311512232e-01*V(u1m_11) + 3.934293985367e-02*V(u1m_12) + 2.188123464584e-01*V(u1m_13) + 1.203055083752e-01*V(u1m_14)
+ + -4.554453492165e-02*V(u1m_15) + 3.106734156609e-02*V(u1m_16) + 5.294907093048e-02*V(u1m_17) + -2.081075012684e-01*V(u1m_18)
+ + 6.909126043320e-02*V(u1m_19))
B_u2c_3 u2c_3 0 V = tanh_psi(0.0 + -1.145619228482e-01*(V(u1p_0) + (-1)*V(u1m_0)) + -2.073505967855e-01*(V(u1p_1) + (-1)*V(u1m_1))
+ + 2.319589257240e-02*(V(u1p_2) + (-1)*V(u1m_2)) + -1.205921173096e-03*(V(u1p_3) + (-1)*V(u1m_3)) + 1.391749978065e-01*(V(u1p_4)
+ + (-1)*V(u1m_4)) + -1.712366491556e-01*(V(u1p_5) + (-1)*V(u1m_5)) + -5.073994398117e-02*(V(u1p_6) + (-1)*V(u1m_6))
+ + 1.835989952087e-01*(V(u1p_7) + (-1)*V(u1m_7)) + 1.058632731438e-01*(V(u1p_8) + (-1)*V(u1m_8)) + -2.102553844452e-05*(V(u1p_9)
+ + (-1)*V(u1m_9)) + -1.754722297192e-01*(V(u1p_10) + (-1)*V(u1m_10)) + -1.170435920358e-01*(V(u1p_11) + (-1)*V(u1m_11))
+ + 3.446415066719e-03*(V(u1p_12) + (-1)*V(u1m_12)) + 1.556347608566e-01*(V(u1p_13) + (-1)*V(u1m_13)) + 2.936908602715e-02*(V(u1p_14)
+ + (-1)*V(u1m_14)) + 2.008709013462e-01*(V(u1p_15) + (-1)*V(u1m_15)) + 2.036512792110e-01*(V(u1p_16) + (-1)*V(u1m_16))
+ + 1.088841855526e-01*(V(u1p_17) + (-1)*V(u1m_17)) + -1.334411799908e-01*(V(u1p_18) + (-1)*V(u1m_18)) + 1.081750392914e-01*(V(u1p_19)
+ + (-1)*V(u1m_19)))
B_u2a_4 u2a_4 0 V = tanh_psi(-2.275057137012e-03 + -1.630178987980e-01*V(u1p_0) + 1.717589795589e-01*V(u1p_1) + 1.233820617199e-01*V(u1p_2)
+ + -2.089801877737e-01*V(u1p_3) + -9.854531288147e-02*V(u1p_4) + -5.742371082306e-03*V(u1p_5) + -1.545462012291e-02*V(u1p_6)
+ + -5.160531401634e-02*V(u1p_7) + 3.682047128677e-02*V(u1p_8) + -1.670405119658e-01*V(u1p_9) + 4.633575677872e-02*V(u1p_10)
+ + 7.774201035500e-02*V(u1p_11) + 8.850145339966e-02*V(u1p_12) + -1.470101177692e-01*V(u1p_13) + 8.060887455940e-03*V(u1p_14)
+ + 5.753171443939e-02*V(u1p_15) + 1.447241306305e-01*V(u1p_16) + 1.569468379021e-01*V(u1p_17) + -1.800000220537e-01*V(u1p_18)
+ + 1.513211429119e-02*V(u1p_19) + -2.082751691341e-02*V(u1m_0) + -2.716046571732e-02*V(u1m_1) + 2.419520914555e-02*V(u1m_2)
+ + 1.471550762653e-01*V(u1m_3) + -6.833124160767e-02*V(u1m_4) + 1.556715667248e-01*V(u1m_5) + -6.452353298664e-02*V(u1m_6)
+ + 8.145469427109e-02*V(u1m_7) + -1.397346854210e-01*V(u1m_8) + -3.765435516834e-02*V(u1m_9) + -5.843126773834e-02*V(u1m_10)
+ + -2.078348696232e-01*V(u1m_11) + -4.642122983932e-02*V(u1m_12) + -1.381921470165e-01*V(u1m_13) + 1.616398394108e-01*V(u1m_14)
+ + 1.852681636810e-01*V(u1m_15) + -5.175872147083e-02*V(u1m_16) + 1.402917206287e-01*V(u1m_17) + -2.846406400204e-02*V(u1m_18)
+ + -1.078324764967e-01*V(u1m_19))
B_u2b_4 u2b_4 0 V = tanh_psi(-2.275057137012e-03 + -2.082751691341e-02*V(u1p_0) + -2.716046571732e-02*V(u1p_1) + 2.419520914555e-02*V(u1p_2)
+ + 1.471550762653e-01*V(u1p_3) + -6.833124160767e-02*V(u1p_4) + 1.556715667248e-01*V(u1p_5) + -6.452353298664e-02*V(u1p_6)
+ + 8.145469427109e-02*V(u1p_7) + -1.397346854210e-01*V(u1p_8) + -3.765435516834e-02*V(u1p_9) + -5.843126773834e-02*V(u1p_10)
+ + -2.078348696232e-01*V(u1p_11) + -4.642122983932e-02*V(u1p_12) + -1.381921470165e-01*V(u1p_13) + 1.616398394108e-01*V(u1p_14)
+ + 1.852681636810e-01*V(u1p_15) + -5.175872147083e-02*V(u1p_16) + 1.402917206287e-01*V(u1p_17) + -2.846406400204e-02*V(u1p_18)
+ + -1.078324764967e-01*V(u1p_19) + -1.630178987980e-01*V(u1m_0) + 1.717589795589e-01*V(u1m_1) + 1.233820617199e-01*V(u1m_2)
+ + -2.089801877737e-01*V(u1m_3) + -9.854531288147e-02*V(u1m_4) + -5.742371082306e-03*V(u1m_5) + -1.545462012291e-02*V(u1m_6)
+ + -5.160531401634e-02*V(u1m_7) + 3.682047128677e-02*V(u1m_8) + -1.670405119658e-01*V(u1m_9) + 4.633575677872e-02*V(u1m_10)
+ + 7.774201035500e-02*V(u1m_11) + 8.850145339966e-02*V(u1m_12) + -1.470101177692e-01*V(u1m_13) + 8.060887455940e-03*V(u1m_14)
+ + 5.753171443939e-02*V(u1m_15) + 1.447241306305e-01*V(u1m_16) + 1.569468379021e-01*V(u1m_17) + -1.800000220537e-01*V(u1m_18)
+ + 1.513211429119e-02*V(u1m_19))
B_u2c_4 u2c_4 0 V = tanh_psi(0.0 + 7.840067148209e-03*(V(u1p_0) + (-1)*V(u1m_0)) + 1.991811394691e-02*(V(u1p_1) + (-1)*V(u1m_1))
+ + 2.198858261108e-01*(V(u1p_2) + (-1)*V(u1m_2)) + -1.613302528858e-01*(V(u1p_3) + (-1)*V(u1m_3)) + -1.917336881161e-02*(V(u1p_4)
+ + (-1)*V(u1m_4)) + -4.183225333691e-02*(V(u1p_5) + (-1)*V(u1m_5)) + -1.597276329994e-02*(V(u1p_6) + (-1)*V(u1m_6))
+ + -1.839578151703e-03*(V(u1p_7) + (-1)*V(u1m_7)) + 6.734719872475e-02*(V(u1p_8) + (-1)*V(u1m_8)) + -1.388624161482e-01*(V(u1p_9)
+ + (-1)*V(u1m_9)) + 2.023020386696e-01*(V(u1p_10) + (-1)*V(u1m_10)) + -2.025324553251e-01*(V(u1p_11) + (-1)*V(u1m_11))
+ + -1.633864492178e-01*(V(u1p_12) + (-1)*V(u1m_12)) + 1.756389439106e-01*(V(u1p_13) + (-1)*V(u1m_13)) + 9.457984566689e-02*(V(u1p_14)
+ + (-1)*V(u1m_14)) + 1.013972461224e-01*(V(u1p_15) + (-1)*V(u1m_15)) + -1.337296962738e-01*(V(u1p_16) + (-1)*V(u1m_16))
+ + -2.885347604752e-02*(V(u1p_17) + (-1)*V(u1m_17)) + -1.750712096691e-01*(V(u1p_18) + (-1)*V(u1m_18))
+ + 1.229917407036e-01*(V(u1p_19) + (-1)*V(u1m_19)))
B_u2a_5 u2a_5 0 V = tanh_psi(8.920190483332e-02 + 1.590909659863e-01*V(u1p_0) + 1.193690001965e-01*V(u1p_1) + -6.945867836475e-02*V(u1p_2)
+ + -1.968015134335e-01*V(u1p_3) + -1.233160495758e-01*V(u1p_4) + 2.699759602547e-02*V(u1p_5) + -2.189186215401e-02*V(u1p_6)
+ + 3.114536404610e-03*V(u1p_7) + 2.095932960510e-01*V(u1p_8) + -1.921945065260e-01*V(u1p_9) + -2.025880813599e-01*V(u1p_10)
+ + -7.435029745102e-02*V(u1p_11) + -1.139027997851e-01*V(u1p_12) + 1.145817935467e-01*V(u1p_13) + 1.895754039288e-01*V(u1p_14)
+ + 5.069914460182e-02*V(u1p_15) + 2.311255037785e-02*V(u1p_16) + -1.218006014824e-01*V(u1p_17) + -4.891987144947e-02*V(u1p_18)
+ + -5.709558725357e-03*V(u1p_19) + -1.616370081902e-01*V(u1m_0) + -1.319043934345e-01*V(u1m_1) + 9.780377149582e-03*V(u1m_2)
+ + -1.079576313496e-01*V(u1m_3) + 7.470050454140e-02*V(u1m_4) + 1.132261753082e-01*V(u1m_5) + 6.370067596436e-02*V(u1m_6)
+ + 5.680900812149e-02*V(u1m_7) + -3.898502886295e-02*V(u1m_8) + -1.183806881309e-01*V(u1m_9) + 4.438728094101e-02*V(u1m_10)
+ + 1.909587681293e-01*V(u1m_11) + -1.333417445421e-01*V(u1m_12) + -1.701995730400e-01*V(u1m_13) + 1.697176694870e-01*V(u1m_14)
+ + -9.729440510273e-02*V(u1m_15) + 1.307555735111e-01*V(u1m_16) + 1.113626956940e-01*V(u1m_17) + -2.162263393402e-01*V(u1m_18)
+ + 1.284810006618e-01*V(u1m_19))
B_u2b_5 u2b_5 0 V = tanh_psi(8.920190483332e-02 + -1.616370081902e-01*V(u1p_0) + -1.319043934345e-01*V(u1p_1) + 9.780377149582e-03*V(u1p_2)
+ + -1.079576313496e-01*V(u1p_3) + 7.470050454140e-02*V(u1p_4) + 1.132261753082e-01*V(u1p_5) + 6.370067596436e-02*V(u1p_6)
+ + 5.680900812149e-02*V(u1p_7) + -3.898502886295e-02*V(u1p_8) + -1.183806881309e-01*V(u1p_9) + 4.438728094101e-02*V(u1p_10)
+ + 1.909587681293e-01*V(u1p_11) + -1.333417445421e-01*V(u1p_12) + -1.701995730400e-01*V(u1p_13) + 1.697176694870e-01*V(u1p_14)
+ + -9.729440510273e-02*V(u1p_15) + 1.307555735111e-01*V(u1p_16) + 1.113626956940e-01*V(u1p_17) + -2.162263393402e-01*V(u1p_18)
+ + 1.284810006618e-01*V(u1p_19) + 1.590909659863e-01*V(u1m_0) + 1.193690001965e-01*V(u1m_1) + -6.945867836475e-02*V(u1m_2)
+ + -1.968015134335e-01*V(u1m_3) + -1.233160495758e-01*V(u1m_4) + 2.699759602547e-02*V(u1m_5) + -2.189186215401e-02*V(u1m_6)
+ + 3.114536404610e-03*V(u1m_7) + 2.095932960510e-01*V(u1m_8) + -1.921945065260e-01*V(u1m_9) + -2.025880813599e-01*V(u1m_10)
+ + -7.435029745102e-02*V(u1m_11) + -1.139027997851e-01*V(u1m_12) + 1.145817935467e-01*V(u1m_13) + 1.895754039288e-01*V(u1m_14)
+ + 5.069914460182e-02*V(u1m_15) + 2.311255037785e-02*V(u1m_16) + -1.218006014824e-01*V(u1m_17) + -4.891987144947e-02*V(u1m_18)
+ + -5.709558725357e-03*V(u1m_19))
B_u2c_5 u2c_5 0 V = tanh_psi(0.0 + 4.828423261642e-04*(V(u1p_0) + (-1)*V(u1m_0)) + -1.799495518208e-01*(V(u1p_1) + (-1)*V(u1m_1))
+ + 2.151696383953e-02*(V(u1p_2) + (-1)*V(u1m_2)) + 5.355247855186e-02*(V(u1p_3) + (-1)*V(u1m_3)) + -2.011897563934e-01*(V(u1p_4)
+ + (-1)*V(u1m_4)) + 1.667737960815e-03*(V(u1p_5) + (-1)*V(u1m_5)) + 1.841225624084e-01*(V(u1p_6) + (-1)*V(u1m_6))
+ + 1.136304736137e-01*(V(u1p_7) + (-1)*V(u1m_7)) + 6.010705232620e-02*(V(u1p_8) + (-1)*V(u1m_8)) + 2.077549099922e-01*(V(u1p_9)
+ + (-1)*V(u1m_9)) + 1.816636025906e-01*(V(u1p_10) + (-1)*V(u1m_10)) + 9.082794189453e-02*(V(u1p_11) + (-1)*V(u1m_11))
+ + -5.072979629040e-02*(V(u1p_12) + (-1)*V(u1m_12)) + 2.163156569004e-01*(V(u1p_13) + (-1)*V(u1m_13))
+ + -1.315108537674e-01*(V(u1p_14) + (-1)*V(u1m_14)) + 1.582274436951e-01*(V(u1p_15) + (-1)*V(u1m_15))
+ + -1.263725012541e-01*(V(u1p_16) + (-1)*V(u1m_16)) + 4.938986897469e-02*(V(u1p_17) + (-1)*V(u1m_17)) + 2.071325182915e-01*(V(u1p_18)
+ + (-1)*V(u1m_18)) + -1.980351209641e-01*(V(u1p_19) + (-1)*V(u1m_19)))
B_u2a_6 u2a_6 0 V = tanh_psi(-1.041894257069e-01 + -1.661926805973e-01*V(u1p_0) + -5.197022855282e-02*V(u1p_1) + -1.052182689309e-01*V(u1p_2)
+ + 1.889198422432e-01*V(u1p_3) + 4.153260588646e-02*V(u1p_4) + 6.095170974731e-02*V(u1p_5) + 1.381961405277e-01*V(u1p_6)
+ + 2.103078365326e-01*V(u1p_7) + -4.820735752583e-02*V(u1p_8) + 1.871013641357e-01*V(u1p_9) + -2.170673012733e-01*V(u1p_10)
+ + 1.082384884357e-01*V(u1p_11) + 2.674138545990e-02*V(u1p_12) + -1.099959313869e-01*V(u1p_13) + 6.145006418228e-02*V(u1p_14)
+ + 9.870526194572e-02*V(u1p_15) + -5.137257277966e-02*V(u1p_16) + -1.279223859310e-01*V(u1p_17) + 7.450059056282e-03*V(u1p_18)
+ + 1.661272644997e-01*V(u1p_19) + -1.684437692165e-01*V(u1m_0) + 1.968482136726e-01*V(u1m_1) + 1.998093724251e-01*V(u1m_2)
+ + 1.482627987862e-01*V(u1m_3) + 1.235547661781e-01*V(u1m_4) + 1.588805913925e-01*V(u1m_5) + -1.080792844296e-01*V(u1m_6)
+ + -1.901612579823e-01*V(u1m_7) + 1.793685555458e-02*V(u1m_8) + 1.618680357933e-01*V(u1m_9) + -1.166970953345e-01*V(u1m_10)
+ + -5.108679831028e-02*V(u1m_11) + -2.190524786711e-01*V(u1m_12) + 6.643739342690e-02*V(u1m_13) + -1.070348247886e-01*V(u1m_14)
+ + -1.807824075222e-01*V(u1m_15) + -1.195247471333e-02*V(u1m_16) + -1.368078291416e-01*V(u1m_17) + 1.726339161396e-01*V(u1m_18)
+ + -1.218271479011e-01*V(u1m_19))
B_u2b_6 u2b_6 0 V = tanh_psi(-1.041894257069e-01 + -1.684437692165e-01*V(u1p_0) + 1.968482136726e-01*V(u1p_1) + 1.998093724251e-01*V(u1p_2)
+ + 1.482627987862e-01*V(u1p_3) + 1.235547661781e-01*V(u1p_4) + 1.588805913925e-01*V(u1p_5) + -1.080792844296e-01*V(u1p_6)
+ + -1.901612579823e-01*V(u1p_7) + 1.793685555458e-02*V(u1p_8) + 1.618680357933e-01*V(u1p_9) + -1.166970953345e-01*V(u1p_10)
+ + -5.108679831028e-02*V(u1p_11) + -2.190524786711e-01*V(u1p_12) + 6.643739342690e-02*V(u1p_13) + -1.070348247886e-01*V(u1p_14)
+ + -1.807824075222e-01*V(u1p_15) + -1.195247471333e-02*V(u1p_16) + -1.368078291416e-01*V(u1p_17) + 1.726339161396e-01*V(u1p_18)
+ + -1.218271479011e-01*V(u1p_19) + -1.661926805973e-01*V(u1m_0) + -5.197022855282e-02*V(u1m_1) + -1.052182689309e-01*V(u1m_2)
+ + 1.889198422432e-01*V(u1m_3) + 4.153260588646e-02*V(u1m_4) + 6.095170974731e-02*V(u1m_5) + 1.381961405277e-01*V(u1m_6)
+ + 2.103078365326e-01*V(u1m_7) + -4.820735752583e-02*V(u1m_8) + 1.871013641357e-01*V(u1m_9) + -2.170673012733e-01*V(u1m_10)
+ + 1.082384884357e-01*V(u1m_11) + 2.674138545990e-02*V(u1m_12) + -1.099959313869e-01*V(u1m_13) + 6.145006418228e-02*V(u1m_14)
+ + 9.870526194572e-02*V(u1m_15) + -5.137257277966e-02*V(u1m_16) + -1.279223859310e-01*V(u1m_17) + 7.450059056282e-03*V(u1m_18)
+ + 1.661272644997e-01*V(u1m_19))
B_u2c_6 u2c_6 0 V = tanh_psi(0.0 + 1.681973040104e-01*(V(u1p_0) + (-1)*V(u1m_0)) + -1.275362074375e-02*(V(u1p_1) + (-1)*V(u1m_1))
+ + -5.917358398438e-02*(V(u1p_2) + (-1)*V(u1m_2)) + -2.097769677639e-01*(V(u1p_3) + (-1)*V(u1m_3)) + 1.913412809372e-01*(V(u1p_4)
+ + (-1)*V(u1m_4)) + 1.731294989586e-01*(V(u1p_5) + (-1)*V(u1m_5)) + 1.032012999058e-01*(V(u1p_6) + (-1)*V(u1m_6))